<?xml version="1.0" encoding="UTF-8"?>

<!-- generated on 2024-09-09 00:20:30 by Eclipse SUMO netedit Version 1.20.0
<configuration xmlns:xsi="http://www.w3.org/2001/XMLSchema-instance" xsi:noNamespaceSchemaLocation="http://sumo.dlr.de/xsd/neteditConfiguration.xsd">

    <input>
        <sumo-net-file value="F:\finalsim\mynetw.net.xml"/>
    </input>

    <output>
        <output-file value="F:\finalsim\mynetw.net.xml"/>
    </output>

    <processing>
        <offset.disable-normalization value="true"/>
    </processing>

    <junctions>
        <no-turnarounds value="true"/>
    </junctions>

    <netedit>
        <new-network value="false"/>
    </netedit>

</configuration>
-->

<net version="1.20" junctionCornerDetail="5" limitTurnSpeed="5.50" xmlns:xsi="http://www.w3.org/2001/XMLSchema-instance" xsi:noNamespaceSchemaLocation="http://sumo.dlr.de/xsd/net_file.xsd">

    <location netOffset="0.00,0.00" convBoundary="-63.87,-68.44,192.22,130.59" origBoundary="10000000000.00,10000000000.00,-10000000000.00,-10000000000.00" projParameter="!"/>

    <edge id=":J0_0" function="internal">
        <lane id=":J0_0_0" index="0" speed="6.52" length="9.09" shape="2.42,88.07 -0.04,88.39 -1.80,89.43 -2.87,91.19 -3.25,93.67"/>
    </edge>
    <edge id=":J0_1" function="internal">
        <lane id=":J0_1_0" index="0" speed="13.89" length="14.45" shape="2.42,88.07 -12.03,88.10"/>
    </edge>
    <edge id=":J0_2" function="internal">
        <lane id=":J0_2_0" index="0" speed="8.02" length="3.89" shape="2.42,88.07 -1.43,87.46"/>
    </edge>
    <edge id=":J0_12" function="internal">
        <lane id=":J0_12_0" index="0" speed="8.02" length="10.30" shape="-1.43,87.46 -4.17,85.78 -5.80,83.02 -6.32,79.18"/>
    </edge>
    <edge id=":J0_3" function="internal">
        <lane id=":J0_3_0" index="0" speed="6.53" length="9.06" shape="-3.12,79.20 -2.79,81.65 -1.75,83.41 0.01,84.48 2.46,84.87"/>
    </edge>
    <edge id=":J0_4" function="internal">
        <lane id=":J0_4_0" index="0" speed="13.89" length="14.47" shape="-3.12,79.20 -3.25,93.67"/>
    </edge>
    <edge id=":J0_5" function="internal">
        <lane id=":J0_5_0" index="0" speed="8.10" length="4.06" shape="-3.12,79.20 -3.70,83.03 -3.80,83.19"/>
    </edge>
    <edge id=":J0_13" function="internal">
        <lane id=":J0_13_0" index="0" speed="8.10" length="10.22" shape="-3.80,83.19 -5.38,85.79 -8.16,87.48 -12.03,88.10"/>
    </edge>
    <edge id=":J0_6" function="internal">
        <lane id=":J0_6_0" index="0" speed="6.62" length="9.21" shape="-12.09,84.90 -9.58,84.50 -7.79,83.42 -6.70,81.64 -6.32,79.18"/>
    </edge>
    <edge id=":J0_7" function="internal">
        <lane id=":J0_7_0" index="0" speed="13.89" length="14.56" shape="-12.09,84.90 2.46,84.87"/>
    </edge>
    <edge id=":J0_8" function="internal">
        <lane id=":J0_8_0" index="0" speed="7.95" length="4.21" shape="-12.09,84.90 -8.19,85.38 -7.95,85.53"/>
    </edge>
    <edge id=":J0_14" function="internal">
        <lane id=":J0_14_0" index="0" speed="7.95" length="10.09" shape="-7.95,85.53 -5.41,87.01 -3.77,89.77 -3.25,93.67"/>
    </edge>
    <edge id=":J0_9" function="internal">
        <lane id=":J0_9_0" index="0" speed="6.45" length="9.03" shape="-6.45,93.64 -6.77,91.18 -7.81,89.43 -9.57,88.41 -12.03,88.10"/>
    </edge>
    <edge id=":J0_10" function="internal">
        <lane id=":J0_10_0" index="0" speed="13.89" length="14.46" shape="-6.45,93.64 -6.32,79.18"/>
    </edge>
    <edge id=":J0_11" function="internal">
        <lane id=":J0_11_0" index="0" speed="8.01" length="4.09" shape="-6.45,93.64 -5.86,89.75 -5.77,89.61"/>
    </edge>
    <edge id=":J0_15" function="internal">
        <lane id=":J0_15_0" index="0" speed="8.01" length="10.18" shape="-5.77,89.61 -4.17,87.00 -1.40,85.37 2.46,84.87"/>
    </edge>
    <edge id=":J1_0" function="internal">
        <lane id=":J1_0_0" index="0" speed="6.56" length="9.14" shape="3.12,-9.22 0.65,-8.86 -1.12,-7.79 -2.19,-6.01 -2.56,-3.53"/>
    </edge>
    <edge id=":J1_1" function="internal">
        <lane id=":J1_1_0" index="0" speed="13.89" length="14.47" shape="3.12,-9.22 -11.35,-9.11"/>
    </edge>
    <edge id=":J1_2" function="internal">
        <lane id=":J1_2_0" index="0" speed="7.99" length="4.04" shape="3.12,-9.22 -0.74,-9.76 -0.86,-9.83"/>
    </edge>
    <edge id=":J1_12" function="internal">
        <lane id=":J1_12_0" index="0" speed="7.99" length="10.18" shape="-0.86,-9.83 -3.50,-11.41 -5.14,-14.16 -5.68,-18.03"/>
    </edge>
    <edge id=":J1_3" function="internal">
        <lane id=":J1_3_0" index="0" speed="6.49" length="9.03" shape="-2.48,-18.01 -2.14,-15.56 -1.09,-13.81 0.66,-12.76 3.11,-12.42"/>
    </edge>
    <edge id=":J1_4" function="internal">
        <lane id=":J1_4_0" index="0" speed="13.89" length="14.49" shape="-2.48,-18.01 -2.56,-3.53"/>
    </edge>
    <edge id=":J1_5" function="internal">
        <lane id=":J1_5_0" index="0" speed="8.07" length="4.08" shape="-2.48,-18.01 -3.05,-14.16 -3.14,-14.00"/>
    </edge>
    <edge id=":J1_13" function="internal">
        <lane id=":J1_13_0" index="0" speed="8.07" length="10.20" shape="-3.14,-14.00 -4.71,-11.39 -7.48,-9.71 -11.35,-9.11"/>
    </edge>
    <edge id=":J1_6" function="internal">
        <lane id=":J1_6_0" index="0" speed="6.59" length="9.18" shape="-11.39,-12.31 -8.90,-12.70 -7.12,-13.78 -6.04,-15.55 -5.68,-18.03"/>
    </edge>
    <edge id=":J1_7" function="internal">
        <lane id=":J1_7_0" index="0" speed="13.89" length="14.50" shape="-11.39,-12.31 3.11,-12.42"/>
    </edge>
    <edge id=":J1_8" function="internal">
        <lane id=":J1_8_0" index="0" speed="7.97" length="4.12" shape="-11.39,-12.31 -7.50,-11.80 -7.33,-11.70"/>
    </edge>
    <edge id=":J1_14" function="internal">
        <lane id=":J1_14_0" index="0" speed="7.97" length="10.15" shape="-7.33,-11.70 -4.73,-10.17 -3.09,-7.41 -2.56,-3.53"/>
    </edge>
    <edge id=":J1_9" function="internal">
        <lane id=":J1_9_0" index="0" speed="6.47" length="9.03" shape="-5.76,-3.55 -6.09,-6.01 -7.14,-7.76 -8.89,-8.79 -11.35,-9.11"/>
    </edge>
    <edge id=":J1_10" function="internal">
        <lane id=":J1_10_0" index="0" speed="13.89" length="14.48" shape="-5.76,-3.55 -5.68,-18.03"/>
    </edge>
    <edge id=":J1_11" function="internal">
        <lane id=":J1_11_0" index="0" speed="8.05" length="4.08" shape="-5.76,-3.55 -5.18,-7.42 -5.09,-7.57"/>
    </edge>
    <edge id=":J1_15" function="internal">
        <lane id=":J1_15_0" index="0" speed="8.05" length="10.19" shape="-5.09,-7.57 -3.51,-10.19 -0.75,-11.85 3.11,-12.42"/>
    </edge>
    <edge id=":J3_0" function="internal">
        <lane id=":J3_0_0" index="0" speed="6.52" length="9.06" shape="139.68,-9.49 137.23,-9.15 135.47,-8.11 134.40,-6.35 134.04,-3.89"/>
    </edge>
    <edge id=":J3_1" function="internal">
        <lane id=":J3_1_0" index="0" speed="13.89" length="14.42" shape="139.68,-9.49 125.26,-9.51"/>
    </edge>
    <edge id=":J3_2" function="internal">
        <lane id=":J3_2_0" index="0" speed="8.00" length="4.04" shape="139.68,-9.49 135.83,-10.06 135.71,-10.14"/>
    </edge>
    <edge id=":J3_12" function="internal">
        <lane id=":J3_12_0" index="0" speed="8.00" length="10.16" shape="135.71,-10.14 133.09,-11.73 131.46,-14.49 130.93,-18.34"/>
    </edge>
    <edge id=":J3_3" function="internal">
        <lane id=":J3_3_0" index="0" speed="6.51" length="9.03" shape="134.13,-18.32 134.46,-15.87 135.50,-14.12 137.25,-13.06 139.70,-12.69"/>
    </edge>
    <edge id=":J3_4" function="internal">
        <lane id=":J3_4_0" index="0" speed="13.89" length="14.43" shape="134.13,-18.32 134.04,-3.89"/>
    </edge>
    <edge id=":J3_5" function="internal">
        <lane id=":J3_5_0" index="0" speed="8.04" length="4.07" shape="134.13,-18.32 133.56,-14.48 133.46,-14.32"/>
    </edge>
    <edge id=":J3_13" function="internal">
        <lane id=":J3_13_0" index="0" speed="8.04" length="10.16" shape="133.46,-14.32 131.89,-11.73 129.12,-10.07 125.26,-9.51"/>
    </edge>
    <edge id=":J3_6" function="internal">
        <lane id=":J3_6_0" index="0" speed="6.55" length="9.10" shape="125.25,-12.71 127.72,-13.07 129.49,-14.13 130.56,-15.89 130.93,-18.34"/>
    </edge>
    <edge id=":J3_7" function="internal">
        <lane id=":J3_7_0" index="0" speed="13.89" length="14.44" shape="125.25,-12.71 139.70,-12.69"/>
    </edge>
    <edge id=":J3_8" function="internal">
        <lane id=":J3_8_0" index="0" speed="7.99" length="4.10" shape="125.25,-12.71 129.12,-12.17 129.29,-12.07"/>
    </edge>
    <edge id=":J3_14" function="internal">
        <lane id=":J3_14_0" index="0" speed="7.99" length="10.12" shape="129.29,-12.07 131.87,-10.52 133.51,-7.76 134.04,-3.89"/>
    </edge>
    <edge id=":J3_9" function="internal">
        <lane id=":J3_9_0" index="0" speed="6.49" length="9.03" shape="130.84,-3.91 130.50,-6.37 129.46,-8.12 127.72,-9.17 125.26,-9.51"/>
    </edge>
    <edge id=":J3_10" function="internal">
        <lane id=":J3_10_0" index="0" speed="13.89" length="14.43" shape="130.84,-3.91 130.93,-18.34"/>
    </edge>
    <edge id=":J3_11" function="internal">
        <lane id=":J3_11_0" index="0" speed="8.01" length="4.08" shape="130.84,-3.91 131.41,-7.77 131.51,-7.92"/>
    </edge>
    <edge id=":J3_15" function="internal">
        <lane id=":J3_15_0" index="0" speed="8.01" length="10.14" shape="131.51,-7.92 133.08,-10.52 135.84,-12.16 139.70,-12.69"/>
    </edge>
    <edge id=":J4_0" function="internal">
        <lane id=":J4_0_0" index="0" speed="6.52" length="9.04" shape="138.99,90.05 136.54,90.37 134.78,91.40 133.70,93.14 133.31,95.58"/>
    </edge>
    <edge id=":J4_1" function="internal">
        <lane id=":J4_1_0" index="0" speed="13.89" length="14.42" shape="138.99,90.05 124.57,89.85"/>
    </edge>
    <edge id=":J4_2" function="internal">
        <lane id=":J4_2_0" index="0" speed="8.02" length="4.07" shape="138.99,90.05 135.15,89.45 135.00,89.35"/>
    </edge>
    <edge id=":J4_12" function="internal">
        <lane id=":J4_12_0" index="0" speed="8.02" length="10.14" shape="135.00,89.35 132.42,87.76 130.79,84.99 130.27,81.12"/>
    </edge>
    <edge id=":J4_3" function="internal">
        <lane id=":J4_3_0" index="0" speed="6.53" length="9.07" shape="133.47,81.15 133.80,83.61 134.84,85.39 136.58,86.47 139.03,86.85"/>
    </edge>
    <edge id=":J4_4" function="internal">
        <lane id=":J4_4_0" index="0" speed="13.89" length="14.44" shape="133.47,81.15 133.31,95.58"/>
    </edge>
    <edge id=":J4_5" function="internal">
        <lane id=":J4_5_0" index="0" speed="7.99" length="4.10" shape="133.47,81.15 132.89,85.00 132.79,85.18"/>
    </edge>
    <edge id=":J4_13" function="internal">
        <lane id=":J4_13_0" index="0" speed="7.99" length="10.12" shape="132.79,85.18 131.22,87.74 128.44,89.36 124.57,89.85"/>
    </edge>
    <edge id=":J4_6" function="internal">
        <lane id=":J4_6_0" index="0" speed="6.49" length="9.03" shape="124.62,86.65 127.08,86.34 128.84,85.31 129.90,83.57 130.27,81.12"/>
    </edge>
    <edge id=":J4_7" function="internal">
        <lane id=":J4_7_0" index="0" speed="13.89" length="14.41" shape="124.62,86.65 139.03,86.85"/>
    </edge>
    <edge id=":J4_8" function="internal">
        <lane id=":J4_8_0" index="0" speed="8.01" length="4.07" shape="124.62,86.65 128.47,87.26 128.62,87.35"/>
    </edge>
    <edge id=":J4_14" function="internal">
        <lane id=":J4_14_0" index="0" speed="8.01" length="10.14" shape="128.62,87.35 131.21,88.95 132.82,91.73 133.31,95.58"/>
    </edge>
    <edge id=":J4_9" function="internal">
        <lane id=":J4_9_0" index="0" speed="6.51" length="9.05" shape="130.12,95.54 129.80,93.08 128.77,91.32 127.03,90.24 124.57,89.85"/>
    </edge>
    <edge id=":J4_10" function="internal">
        <lane id=":J4_10_0" index="0" speed="13.89" length="14.41" shape="130.12,95.54 130.27,81.12"/>
    </edge>
    <edge id=":J4_11" function="internal">
        <lane id=":J4_11_0" index="0" speed="8.01" length="4.04" shape="130.12,95.54 130.72,91.69 130.80,91.57"/>
    </edge>
    <edge id=":J4_15" function="internal">
        <lane id=":J4_15_0" index="0" speed="8.01" length="10.15" shape="130.80,91.57 132.41,88.97 135.18,87.35 139.03,86.85"/>
    </edge>

    <edge id="-E0" from="J1" to="J0" priority="-1">
        <lane id="-E0_0" index="0" speed="13.89" length="82.73" shape="-2.56,-3.53 -3.12,79.20"/>
    </edge>
    <edge id="-E1" from="J2" to="J1" priority="-1">
        <lane id="-E1_0" index="0" speed="13.89" length="48.81" shape="-60.19,-11.73 -11.39,-12.31"/>
    </edge>
    <edge id="-E10" from="J10" to="J0" priority="-1">
        <lane id="-E10_0" index="0" speed="13.89" length="33.72" shape="-6.79,127.36 -6.45,93.64"/>
    </edge>
    <edge id="-E11" from="J11" to="J4" priority="-1">
        <lane id="-E11_0" index="0" speed="13.89" length="35.04" shape="129.60,130.57 130.12,95.54"/>
    </edge>
    <edge id="-E2" from="J3" to="J1" priority="-1">
        <lane id="-E2_0" index="0" speed="13.89" length="122.14" shape="125.26,-9.51 3.12,-9.22"/>
    </edge>
    <edge id="-E3" from="J4" to="J3" priority="-1">
        <lane id="-E3_0" index="0" speed="13.89" length="85.04" shape="130.27,81.12 130.84,-3.91"/>
    </edge>
    <edge id="-E4" from="J5" to="J3" priority="-1">
        <lane id="-E4_0" index="0" speed="13.89" length="52.53" shape="192.21,-9.20 139.68,-9.49"/>
    </edge>
    <edge id="-E5" from="J6" to="J3" priority="-1">
        <lane id="-E5_0" index="0" speed="13.89" length="50.11" shape="134.42,-68.43 134.13,-18.32"/>
    </edge>
    <edge id="-E6" from="J7" to="J1" priority="-1">
        <lane id="-E6_0" index="0" speed="13.89" length="47.57" shape="-2.29,-65.58 -2.48,-18.01"/>
    </edge>
    <edge id="-E7" from="J8" to="J0" priority="-1">
        <lane id="-E7_0" index="0" speed="13.89" length="51.81" shape="-63.90,85.85 -12.09,84.90"/>
    </edge>
    <edge id="-E8" from="J4" to="J0" priority="-1">
        <lane id="-E8_0" index="0" speed="13.89" length="122.17" shape="124.57,89.85 2.42,88.07"/>
    </edge>
    <edge id="-E9" from="J9" to="J4" priority="-1">
        <lane id="-E9_0" index="0" speed="13.89" length="51.14" shape="190.13,90.66 138.99,90.05"/>
    </edge>
    <edge id="E0" from="J0" to="J1" priority="-1">
        <lane id="E0_0" index="0" speed="13.89" length="82.73" shape="-6.32,79.18 -5.76,-3.55"/>
    </edge>
    <edge id="E1" from="J1" to="J2" priority="-1">
        <lane id="E1_0" index="0" speed="13.89" length="48.81" shape="-11.35,-9.11 -60.16,-8.53"/>
    </edge>
    <edge id="E10" from="J0" to="J10" priority="-1">
        <lane id="E10_0" index="0" speed="13.89" length="33.72" shape="-3.25,93.67 -3.59,127.39"/>
    </edge>
    <edge id="E11" from="J4" to="J11" priority="-1">
        <lane id="E11_0" index="0" speed="13.89" length="35.04" shape="133.31,95.58 132.80,130.62"/>
    </edge>
    <edge id="E2" from="J1" to="J3" priority="-1">
        <lane id="E2_0" index="0" speed="13.89" length="122.14" shape="3.11,-12.42 125.25,-12.71"/>
    </edge>
    <edge id="E3" from="J3" to="J4" priority="-1">
        <lane id="E3_0" index="0" speed="13.89" length="85.04" shape="134.04,-3.89 133.47,81.15"/>
    </edge>
    <edge id="E4" from="J3" to="J5" priority="-1">
        <lane id="E4_0" index="0" speed="13.89" length="52.53" shape="139.70,-12.69 192.22,-12.40"/>
    </edge>
    <edge id="E5" from="J3" to="J6" priority="-1">
        <lane id="E5_0" index="0" speed="13.89" length="50.11" shape="130.93,-18.34 131.22,-68.45"/>
    </edge>
    <edge id="E6" from="J1" to="J7" priority="-1">
        <lane id="E6_0" index="0" speed="13.89" length="47.57" shape="-5.68,-18.03 -5.49,-65.60"/>
    </edge>
    <edge id="E7" from="J0" to="J8" priority="-1">
        <lane id="E7_0" index="0" speed="13.89" length="51.81" shape="-12.03,88.10 -63.84,89.05"/>
    </edge>
    <edge id="E8" from="J0" to="J4" priority="-1">
        <lane id="E8_0" index="0" speed="13.89" length="122.17" shape="2.46,84.87 124.62,86.65"/>
    </edge>
    <edge id="E9" from="J4" to="J9" priority="-1">
        <lane id="E9_0" index="0" speed="13.89" length="51.14" shape="139.03,86.85 190.17,87.46"/>
    </edge>

    <tlLogic id="J0" type="static" programID="0" offset="0">
        <phase duration="42" state="rrrGGgrrrGGg"/>
        <phase duration="3"  state="rrryyyrrryyy"/>
        <phase duration="42" state="GGgrrrGGgrrr"/>
        <phase duration="3"  state="yyyrrryyyrrr"/>
    </tlLogic>
    <tlLogic id="J1" type="static" programID="0" offset="0">
        <phase duration="42" state="rrrGGgrrrGGg"/>
        <phase duration="3"  state="rrryyyrrryyy"/>
        <phase duration="42" state="GGgrrrGGgrrr"/>
        <phase duration="3"  state="yyyrrryyyrrr"/>
    </tlLogic>
    <tlLogic id="J3" type="static" programID="0" offset="0">
        <phase duration="42" state="rrrGGgrrrGGg"/>
        <phase duration="3"  state="rrryyyrrryyy"/>
        <phase duration="42" state="GGgrrrGGgrrr"/>
        <phase duration="3"  state="yyyrrryyyrrr"/>
    </tlLogic>
    <tlLogic id="J4" type="static" programID="0" offset="0">
        <phase duration="42" state="GGgrrrGGgrrr"/>
        <phase duration="3"  state="yyyrrryyyrrr"/>
        <phase duration="42" state="rrrGGgrrrGGg"/>
        <phase duration="3"  state="rrryyyrrryyy"/>
    </tlLogic>

    <junction id="J0" type="traffic_light" x="-4.77" y="86.36" incLanes="-E8_0 -E0_0 -E7_0 -E10_0" intLanes=":J0_0_0 :J0_1_0 :J0_12_0 :J0_3_0 :J0_4_0 :J0_13_0 :J0_6_0 :J0_7_0 :J0_14_0 :J0_9_0 :J0_10_0 :J0_15_0" shape="2.39,89.67 2.49,83.27 0.25,82.79 -0.53,82.23 -1.09,81.44 -1.42,80.43 -1.52,79.21 -7.92,79.17 -8.40,81.43 -8.99,82.23 -9.80,82.81 -10.85,83.16 -12.12,83.30 -12.01,89.70 -9.79,90.10 -9.02,90.64 -8.47,91.41 -8.14,92.40 -8.05,93.62 -1.65,93.69 -1.18,91.43 -0.62,90.64 0.17,90.09 1.17,89.76">
        <request index="0"  response="000000010000" foes="000100010000" cont="0"/>
        <request index="1"  response="111000110000" foes="111100110000" cont="0"/>
        <request index="2"  response="110011110000" foes="110111110000" cont="1"/>
        <request index="3"  response="000000000000" foes="100010000000" cont="0"/>
        <request index="4"  response="000100000100" foes="100110000111" cont="0"/>
        <request index="5"  response="111100000100" foes="111110000110" cont="1"/>
        <request index="6"  response="010000000000" foes="010000000100" cont="0"/>
        <request index="7"  response="110000111000" foes="110000111100" cont="0"/>
        <request index="8"  response="110000110111" foes="110000110111" cont="1"/>
        <request index="9"  response="000000000000" foes="000000100010" cont="0"/>
        <request index="10" response="000100000100" foes="000111100110" cont="0"/>
        <request index="11" response="000100011100" foes="000110111110" cont="1"/>
    </junction>
    <junction id="J1" type="traffic_light" x="-4.11" y="-10.80" incLanes="-E2_0 -E6_0 -E1_0 E0_0" intLanes=":J1_0_0 :J1_1_0 :J1_12_0 :J1_3_0 :J1_4_0 :J1_13_0 :J1_6_0 :J1_7_0 :J1_14_0 :J1_9_0 :J1_10_0 :J1_15_0" shape="3.12,-7.62 3.11,-14.02 0.89,-14.46 0.11,-15.01 -0.44,-15.79 -0.77,-16.79 -0.88,-18.01 -7.28,-18.03 -7.74,-15.77 -8.32,-14.97 -9.12,-14.39 -10.15,-14.04 -11.41,-13.91 -11.33,-7.51 -9.11,-7.10 -8.34,-6.55 -7.79,-5.78 -7.46,-4.78 -7.36,-3.56 -0.96,-3.52 -0.49,-5.79 0.08,-6.59 0.87,-7.16 1.88,-7.50">
        <request index="0"  response="000000010000" foes="000100010000" cont="0"/>
        <request index="1"  response="111000110000" foes="111100110000" cont="0"/>
        <request index="2"  response="110011110000" foes="110111110000" cont="1"/>
        <request index="3"  response="000000000000" foes="100010000000" cont="0"/>
        <request index="4"  response="000100000100" foes="100110000111" cont="0"/>
        <request index="5"  response="111100000100" foes="111110000110" cont="1"/>
        <request index="6"  response="010000000000" foes="010000000100" cont="0"/>
        <request index="7"  response="110000111000" foes="110000111100" cont="0"/>
        <request index="8"  response="110000110111" foes="110000110111" cont="1"/>
        <request index="9"  response="000000000000" foes="000000100010" cont="0"/>
        <request index="10" response="000100000100" foes="000111100110" cont="0"/>
        <request index="11" response="000100011100" foes="000110111110" cont="1"/>
    </junction>
    <junction id="J10" type="dead_end" x="-5.19" y="127.38" incLanes="E10_0" intLanes="" shape="-5.19,127.38 -1.99,127.41 -5.19,127.38"/>
    <junction id="J11" type="dead_end" x="131.20" y="130.59" incLanes="E11_0" intLanes="" shape="131.20,130.59 134.40,130.64 131.20,130.59"/>
    <junction id="J2" type="dead_end" x="-60.18" y="-10.13" incLanes="E1_0" intLanes="" shape="-60.18,-10.13 -60.14,-6.93 -60.18,-10.13"/>
    <junction id="J3" type="traffic_light" x="132.49" y="-11.13" incLanes="-E4_0 -E5_0 E2_0 -E3_0" intLanes=":J3_0_0 :J3_1_0 :J3_12_0 :J3_3_0 :J3_4_0 :J3_13_0 :J3_6_0 :J3_7_0 :J3_14_0 :J3_9_0 :J3_10_0 :J3_15_0" shape="139.67,-7.89 139.71,-14.29 137.49,-14.75 136.71,-15.31 136.16,-16.09 135.83,-17.09 135.73,-18.31 129.33,-18.35 128.87,-16.11 128.30,-15.33 127.51,-14.77 126.49,-14.43 125.25,-14.31 125.27,-7.91 127.48,-7.48 128.26,-6.92 128.81,-6.15 129.14,-5.15 129.24,-3.92 135.64,-3.88 136.10,-6.12 136.66,-6.90 137.44,-7.46 138.45,-7.79">
        <request index="0"  response="000000010000" foes="000100010000" cont="0"/>
        <request index="1"  response="111000110000" foes="111100110000" cont="0"/>
        <request index="2"  response="110111110000" foes="110111110000" cont="1"/>
        <request index="3"  response="000000000000" foes="100010000000" cont="0"/>
        <request index="4"  response="000100000100" foes="100110000111" cont="0"/>
        <request index="5"  response="011100000100" foes="111110000110" cont="1"/>
        <request index="6"  response="010000000000" foes="010000000100" cont="0"/>
        <request index="7"  response="110000111000" foes="110000111100" cont="0"/>
        <request index="8"  response="110000110011" foes="110000110111" cont="1"/>
        <request index="9"  response="000000000000" foes="000000100010" cont="0"/>
        <request index="10" response="000100000100" foes="000111100110" cont="0"/>
        <request index="11" response="000100111100" foes="000110111110" cont="1"/>
    </junction>
    <junction id="J4" type="traffic_light" x="131.82" y="88.36" incLanes="-E9_0 E3_0 E8_0 -E11_0" intLanes=":J4_0_0 :J4_1_0 :J4_12_0 :J4_3_0 :J4_4_0 :J4_13_0 :J4_6_0 :J4_7_0 :J4_14_0 :J4_9_0 :J4_10_0 :J4_15_0" shape="138.97,91.65 139.05,85.25 136.83,84.77 136.05,84.20 135.50,83.41 135.17,82.39 135.07,81.16 128.67,81.11 128.21,83.33 127.65,84.10 126.87,84.64 125.87,84.96 124.64,85.05 124.55,91.45 126.78,91.93 127.55,92.50 128.10,93.28 128.42,94.29 128.52,95.51 134.91,95.61 135.39,93.39 135.96,92.61 136.74,92.07 137.75,91.74">
        <request index="0"  response="000000000000" foes="000100010000" cont="0"/>
        <request index="1"  response="100000100000" foes="111100110000" cont="0"/>
        <request index="2"  response="100111100000" foes="110111110000" cont="1"/>
        <request index="3"  response="000010000000" foes="100010000000" cont="0"/>
        <request index="4"  response="000110000111" foes="100110000111" cont="0"/>
        <request index="5"  response="011110000110" foes="111110000110" cont="1"/>
        <request index="6"  response="000000000000" foes="010000000100" cont="0"/>
        <request index="7"  response="100000100000" foes="110000111100" cont="0"/>
        <request index="8"  response="100000100011" foes="110000110111" cont="1"/>
        <request index="9"  response="000000000010" foes="000000100010" cont="0"/>
        <request index="10" response="000111000110" foes="000111100110" cont="0"/>
        <request index="11" response="000110111110" foes="000110111110" cont="1"/>
    </junction>
    <junction id="J5" type="dead_end" x="192.22" y="-10.80" incLanes="E4_0" intLanes="" shape="192.22,-10.80 192.23,-14.00 192.22,-10.80"/>
    <junction id="J6" type="dead_end" x="132.82" y="-68.44" incLanes="E5_0" intLanes="" shape="132.82,-68.44 129.62,-68.46 132.82,-68.44"/>
    <junction id="J7" type="dead_end" x="-3.89" y="-65.59" incLanes="E6_0" intLanes="" shape="-3.89,-65.59 -7.09,-65.60 -3.89,-65.59"/>
    <junction id="J8" type="dead_end" x="-63.87" y="87.45" incLanes="E7_0" intLanes="" shape="-63.87,87.45 -63.81,90.65 -63.87,87.45"/>
    <junction id="J9" type="dead_end" x="190.15" y="89.06" incLanes="E9_0" intLanes="" shape="190.15,89.06 190.19,85.86 190.15,89.06"/>

    <junction id=":J0_12_0" type="internal" x="-1.43" y="87.46" incLanes=":J0_2_0 -E7_0" intLanes=":J0_4_0 :J0_5_0 :J0_6_0 :J0_7_0 :J0_10_0 :J0_11_0"/>
    <junction id=":J0_13_0" type="internal" x="-3.80" y="83.19" incLanes=":J0_5_0 -E10_0" intLanes=":J0_1_0 :J0_2_0 :J0_7_0 :J0_8_0 :J0_9_0 :J0_10_0"/>
    <junction id=":J0_14_0" type="internal" x="-7.95" y="85.53" incLanes=":J0_8_0 -E8_0" intLanes=":J0_0_0 :J0_1_0 :J0_4_0 :J0_5_0 :J0_10_0 :J0_11_0"/>
    <junction id=":J0_15_0" type="internal" x="-5.77" y="89.61" incLanes=":J0_11_0 -E0_0" intLanes=":J0_1_0 :J0_2_0 :J0_3_0 :J0_4_0 :J0_7_0 :J0_8_0"/>
    <junction id=":J1_12_0" type="internal" x="-0.86" y="-9.83" incLanes=":J1_2_0 -E1_0" intLanes=":J1_4_0 :J1_5_0 :J1_6_0 :J1_7_0 :J1_10_0 :J1_11_0"/>
    <junction id=":J1_13_0" type="internal" x="-3.14" y="-14.00" incLanes=":J1_5_0 E0_0" intLanes=":J1_1_0 :J1_2_0 :J1_7_0 :J1_8_0 :J1_9_0 :J1_10_0"/>
    <junction id=":J1_14_0" type="internal" x="-7.33" y="-11.70" incLanes=":J1_8_0 -E2_0" intLanes=":J1_0_0 :J1_1_0 :J1_4_0 :J1_5_0 :J1_10_0 :J1_11_0"/>
    <junction id=":J1_15_0" type="internal" x="-5.09" y="-7.57" incLanes=":J1_11_0 -E6_0" intLanes=":J1_1_0 :J1_2_0 :J1_3_0 :J1_4_0 :J1_7_0 :J1_8_0"/>
    <junction id=":J3_12_0" type="internal" x="135.71" y="-10.14" incLanes=":J3_2_0 E2_0" intLanes=":J3_4_0 :J3_5_0 :J3_6_0 :J3_7_0 :J3_10_0 :J3_11_0"/>
    <junction id=":J3_13_0" type="internal" x="133.46" y="-14.32" incLanes=":J3_5_0 -E3_0" intLanes=":J3_1_0 :J3_2_0 :J3_7_0 :J3_8_0 :J3_9_0 :J3_10_0"/>
    <junction id=":J3_14_0" type="internal" x="129.29" y="-12.07" incLanes=":J3_8_0 -E4_0" intLanes=":J3_0_0 :J3_1_0 :J3_4_0 :J3_5_0 :J3_10_0 :J3_11_0"/>
    <junction id=":J3_15_0" type="internal" x="131.51" y="-7.92" incLanes=":J3_11_0 -E5_0" intLanes=":J3_1_0 :J3_2_0 :J3_3_0 :J3_4_0 :J3_7_0 :J3_8_0"/>
    <junction id=":J4_12_0" type="internal" x="135.00" y="89.35" incLanes=":J4_2_0 E8_0" intLanes=":J4_4_0 :J4_5_0 :J4_6_0 :J4_7_0 :J4_10_0 :J4_11_0"/>
    <junction id=":J4_13_0" type="internal" x="132.79" y="85.18" incLanes=":J4_5_0 -E11_0" intLanes=":J4_1_0 :J4_2_0 :J4_7_0 :J4_8_0 :J4_9_0 :J4_10_0"/>
    <junction id=":J4_14_0" type="internal" x="128.62" y="87.35" incLanes=":J4_8_0 -E9_0" intLanes=":J4_0_0 :J4_1_0 :J4_4_0 :J4_5_0 :J4_10_0 :J4_11_0"/>
    <junction id=":J4_15_0" type="internal" x="130.80" y="91.57" incLanes=":J4_11_0 E3_0" intLanes=":J4_1_0 :J4_2_0 :J4_3_0 :J4_4_0 :J4_7_0 :J4_8_0"/>

    <connection from="-E0" to="E8" fromLane="0" toLane="0" via=":J0_3_0" tl="J0" linkIndex="3" dir="r" state="O"/>
    <connection from="-E0" to="E10" fromLane="0" toLane="0" via=":J0_4_0" tl="J0" linkIndex="4" dir="s" state="O"/>
    <connection from="-E0" to="E7" fromLane="0" toLane="0" via=":J0_5_0" tl="J0" linkIndex="5" dir="l" state="o"/>
    <connection from="-E1" to="E6" fromLane="0" toLane="0" via=":J1_6_0" tl="J1" linkIndex="6" dir="r" state="o"/>
    <connection from="-E1" to="E2" fromLane="0" toLane="0" via=":J1_7_0" tl="J1" linkIndex="7" dir="s" state="o"/>
    <connection from="-E1" to="-E0" fromLane="0" toLane="0" via=":J1_8_0" tl="J1" linkIndex="8" dir="l" state="o"/>
    <connection from="-E10" to="E7" fromLane="0" toLane="0" via=":J0_9_0" tl="J0" linkIndex="9" dir="r" state="O"/>
    <connection from="-E10" to="E0" fromLane="0" toLane="0" via=":J0_10_0" tl="J0" linkIndex="10" dir="s" state="O"/>
    <connection from="-E10" to="E8" fromLane="0" toLane="0" via=":J0_11_0" tl="J0" linkIndex="11" dir="l" state="o"/>
    <connection from="-E11" to="-E8" fromLane="0" toLane="0" via=":J4_9_0" tl="J4" linkIndex="9" dir="r" state="o"/>
    <connection from="-E11" to="-E3" fromLane="0" toLane="0" via=":J4_10_0" tl="J4" linkIndex="10" dir="s" state="o"/>
    <connection from="-E11" to="E9" fromLane="0" toLane="0" via=":J4_11_0" tl="J4" linkIndex="11" dir="l" state="o"/>
    <connection from="-E2" to="-E0" fromLane="0" toLane="0" via=":J1_0_0" tl="J1" linkIndex="0" dir="r" state="o"/>
    <connection from="-E2" to="E1" fromLane="0" toLane="0" via=":J1_1_0" tl="J1" linkIndex="1" dir="s" state="o"/>
    <connection from="-E2" to="E6" fromLane="0" toLane="0" via=":J1_2_0" tl="J1" linkIndex="2" dir="l" state="o"/>
    <connection from="-E3" to="-E2" fromLane="0" toLane="0" via=":J3_9_0" tl="J3" linkIndex="9" dir="r" state="O"/>
    <connection from="-E3" to="E5" fromLane="0" toLane="0" via=":J3_10_0" tl="J3" linkIndex="10" dir="s" state="O"/>
    <connection from="-E3" to="E4" fromLane="0" toLane="0" via=":J3_11_0" tl="J3" linkIndex="11" dir="l" state="o"/>
    <connection from="-E4" to="E3" fromLane="0" toLane="0" via=":J3_0_0" tl="J3" linkIndex="0" dir="r" state="o"/>
    <connection from="-E4" to="-E2" fromLane="0" toLane="0" via=":J3_1_0" tl="J3" linkIndex="1" dir="s" state="o"/>
    <connection from="-E4" to="E5" fromLane="0" toLane="0" via=":J3_2_0" tl="J3" linkIndex="2" dir="l" state="o"/>
    <connection from="-E5" to="E4" fromLane="0" toLane="0" via=":J3_3_0" tl="J3" linkIndex="3" dir="r" state="O"/>
    <connection from="-E5" to="E3" fromLane="0" toLane="0" via=":J3_4_0" tl="J3" linkIndex="4" dir="s" state="O"/>
    <connection from="-E5" to="-E2" fromLane="0" toLane="0" via=":J3_5_0" tl="J3" linkIndex="5" dir="l" state="o"/>
    <connection from="-E6" to="E2" fromLane="0" toLane="0" via=":J1_3_0" tl="J1" linkIndex="3" dir="r" state="O"/>
    <connection from="-E6" to="-E0" fromLane="0" toLane="0" via=":J1_4_0" tl="J1" linkIndex="4" dir="s" state="O"/>